@<TRIPOS>MOLECULE
ZINC03975669
   59    60     0     0     0
SMALL
USER_CHARGES

@<TRIPOS>ATOM
      1 C1         -2.4001    2.2583   -7.7866 C.ar      1 <0>        -0.1170
      2 C2         -1.2306    1.8190   -7.1948 C.ar      1 <0>        -0.1213
      3 C3         -1.2786    1.1281   -5.9984 C.ar      1 <0>        -0.1019
      4 C4         -2.4961    0.8761   -5.3942 C.ar      1 <0>        -0.0695
      5 C5         -3.6660    1.3105   -5.9889 C.ar      1 <0>        -0.1003
      6 C6         -3.6175    2.0063   -7.1824 C.ar      1 <0>        -0.1197
      7 C7         -2.5485    0.1226   -4.0902 C.3       1 <0>        -0.0503
      8 S1         -2.4494    1.2952   -2.7097 S.3       1 <0>        -0.2362
      9 C8         -2.5243    0.2431   -1.2339 C.3       1 <0>        -0.1039
     10 C9         -2.4492    1.1169    0.0197 C.3       1 <0>         0.1586
     11 H1         -3.2873    1.8139    0.0275 H         1 <0>         0.1150
     12 C10        -2.5115    0.2428    1.2458 C.2       1 <0>         0.5091
     13 O1         -1.4932   -0.0419    1.8398 O.2       1 <0>        -0.5036
     14 N1         -3.6987   -0.2225    1.6821 N.am      1 <0>        -0.6985
     15 C11        -3.7592   -1.0722    2.8740 C.3       1 <0>         0.1374
     16 H2         -2.8747   -1.7079    2.9122 H         1 <0>         0.0979
     17 C12        -4.9946   -1.9333    2.8148 C.ar      1 <0>        -0.0489
     18 C13        -6.1861   -1.4022    2.3577 C.ar      1 <0>        -0.1196
     19 C14        -7.3182   -2.1933    2.2993 C.ar      1 <0>        -0.1210
     20 C15        -7.2609   -3.5130    2.7065 C.ar      1 <0>        -0.1332
     21 C16        -6.0706   -4.0427    3.1686 C.ar      1 <0>        -0.1191
     22 C17        -4.9375   -3.2528    3.2229 C.ar      1 <0>        -0.0967
     23 C18        -3.8091   -0.2062    4.1063 C.2       1 <0>         0.4677
     24 O2         -3.7956    0.9973    3.9999 O.co2     1 <0>        -0.6264
     25 N2         -1.1906    1.8666    0.0178 N.am      1 <0>        -0.7127
     26 C19        -0.0144    1.2086    0.0087 C.2       1 <0>         0.5228
     27 O3          0.0021   -0.0041    0.0020 O.2       1 <0>        -0.4989
     28 C20         1.2803    1.9798    0.0005 C.3       1 <0>        -0.1493
     29 C21         2.4566    1.0015   -0.0160 C.3       1 <0>        -0.1089
     30 C22         3.7710    1.7845   -0.0244 C.3       1 <0>        -0.0170
     31 H3          3.7896    2.4723    0.8210 H         1 <0>         0.1399
     32 C23         4.9280    0.8248    0.0833 C.2       1 <0>         0.4566
     33 O4          5.5442    0.5080   -0.9066 O.co2     1 <0>        -0.6224
     34 H4         -2.3625    2.7987   -8.7210 H         1 <0>         0.1218
     35 H5         -0.2794    2.0159   -7.6668 H         1 <0>         0.1227
     36 H6         -0.3650    0.7849   -5.5360 H         1 <0>         0.1226
     37 H7         -4.6175    1.1098   -5.5191 H         1 <0>         0.1249
     38 H8         -4.5312    2.3498   -7.6447 H         1 <0>         0.1238
     39 H9         -1.7100   -0.5719   -4.0379 H         1 <0>         0.0902
     40 H10        -3.4845   -0.4327   -4.0288 H         1 <0>         0.0909
     41 H11        -1.6863   -0.4539   -1.2417 H         1 <0>         0.1107
     42 H12        -3.4608   -0.3147   -1.2325 H         1 <0>         0.0929
     43 H13        -4.5132    0.0052    1.2070 H         1 <0>         0.3904
     44 H14        -6.2318   -0.3700    2.0430 H         1 <0>         0.1167
     45 H15        -8.2481   -1.7795    1.9380 H         1 <0>         0.1176
     46 H16        -8.1460   -4.1304    2.6634 H         1 <0>         0.1161
     47 H17        -6.0258   -5.0738    3.4868 H         1 <0>         0.1192
     48 H18        -4.0075   -3.6667    3.5839 H         1 <0>         0.1231
     49 H19        -1.2037    2.8365    0.0232 H         1 <0>         0.4042
     50 H20         1.3211    2.6120   -0.8866 H         1 <0>         0.0811
     51 H21         1.3381    2.6024    0.8933 H         1 <0>         0.1044
     52 H22         2.4158    0.3693    0.8710 H         1 <0>         0.1220
     53 H23         2.3988    0.3789   -0.9088 H         1 <0>         0.0890
     54 H24         3.8653    1.9289   -2.0759 H         1 <0>         0.4338
     55 H25         3.1520    3.2400   -1.3422 H         1 <0>         0.4174
     56 O5         -3.8687   -0.7718    5.3221 O.co2     1 <0>        -0.7541
     57 O6          5.2740    0.3221    1.2788 O.co2     1 <0>        -0.6986
     58 N3          3.9030    2.5552   -1.2733 N.4       1 <0>        -0.6260
     59 H26         4.8049    3.0459   -1.2734 H         1 <0>         0.4342
@<TRIPOS>BOND
     1    1    6 ar
     2    1    2 ar
     3    1   34 1
     4    2    3 ar
     5    2   35 1
     6    3    4 ar
     7    3   36 1
     8    4    5 ar
     9    4    7 1
    10    5    6 ar
    11    5   37 1
    12    6   38 1
    13    7    8 1
    14    7   39 1
    15    7   40 1
    16    8    9 1
    17    9   10 1
    18    9   41 1
    19    9   42 1
    20   10   11 1
    21   10   12 1
    22   10   25 1
    23   12   13 2
    24   12   14 am
    25   14   15 1
    26   14   43 1
    27   15   16 1
    28   15   17 1
    29   15   23 1
    30   17   22 ar
    31   17   18 ar
    32   18   19 ar
    33   18   44 1
    34   19   20 ar
    35   19   45 1
    36   20   21 ar
    37   20   46 1
    38   21   22 ar
    39   21   47 1
    40   22   48 1
    41   23   24 2
    42   23   56 1
    43   25   26 am
    44   25   49 1
    45   26   27 2
    46   26   28 1
    47   28   29 1
    48   28   50 1
    49   28   51 1
    50   29   30 1
    51   29   52 1
    52   29   53 1
    53   30   31 1
    54   30   32 1
    55   30   58 1
    56   32   33 2
    57   32   57 1
    58   54   58 1
    59   55   58 1
    60   58   59 1
